trunk/Version7/Test/Test3phZwDelta.DSS
// 3-phase auto test

Clear
New Circuit.Z3test
~ BasekV=17.321  MVASC3=1000000 1000000

// 3-ph AutoTrans
New AutoTrans.Auto phases=3 windings=3  XHX=10
~ Wdg=1 Bus=Sourcebus.1.2.3 kV=(17.321) kVA=10000 %R=0.01 RDC=1  ! conn always series
~ Wdg=2 Bus=XBus1.1.2.3 kV=3.4641  kVA=10000 %R=0.01 RDC=0.1     ! conn always wye
~ Wdg=3 Bus=YBus1.1.2.3 kV=5  kVA=10000 %R=0.01  conn=Delta



// YY 3-ph transformer  Base Reference

New Transformer.3phYY phases=3 windings=3 X12=10
~ X13=35  X23=30
~ Wdg=1 Bus=Sourcebus.1 kV=(17.321) kVA=10000 %R=0.01 RDC=1   conn=wye
~ Wdg=2 Bus=XBus2.1.2.3  kV=3.4641  kVA=10000 %R=0.01 RDC=0.1 conn=wye
~ Wdg=3 Bus=YBus2.1.2.3  kV=5          kVA=10000 %R=0.01                conn=Delta


// Auto made up of 1-phase transformers
New Reactor.Jumper3 Bus1=SourceBus.1.2.3 Phases=3  Bus2=XBus3.4.5.6  R=.001 X=0

New Transformer.1phAuto1 phases=1 windings=3 X12=(10 10 8 / sqr *)  ! 10/8 ^2
~ X13=35  X23=30
~ Wdg=1 Bus=XBus3.4.1 kV=(8) kVA=3333.3  %R=0.01 RDC=1  conn=delta ! series
~ Wdg=2 Bus=XBus3.1 kV=2 kVA=3333.3  %R=0.01 RDC=0.1  ! common
~ Wdg=3 Bus=Ybus3.1.2 kV=(5) kVA=3333.3  %R=0.01 RDC=0.1 conn=delta

New Transformer.1phAuto2 phases=1 windings=3 X12=(10 10 8 / sqr *)  ! 10/8 ^2
~ X13=35 X23=30
~ Wdg=1 Bus=XBus3.5.2 kV=(8) kVA=3333.3  %R=0.01 RDC=1 conn=delta  ! series
~ Wdg=2 Bus=XBus3.2.0 kV=2 kVA=3333.3  %R=0.01 RDC=0.1  ! common
~ Wdg=3 Bus=Ybus3.2.3 kV=(5) kVA=3333.3  %R=0.01 RDC=0.1 conn=delta

New Transformer.1phAuto3 phases=1 windings=3 X12=(10 10 8 / sqr *)  ! 10/8 ^2
~ X13=35  X23=30
~ Wdg=1 Bus=XBus3.6.3 kV=(8) kVA=3333.3  %R=0.01 RDC=1 conn=delta ! series
~ Wdg=2 Bus=XBus3.3.0 kV=2 kVA=3333.3  %R=0.01 RDC=0.1  ! common
~ Wdg=3 Bus=Ybus3.3.1 kV=(5) kVA=3333.3  %R=0.01 RDC=0.1 conn=delta



Solve mode=direct

Show V LN Nodes

Show curr elem
Show powers kVA elem
Show Yprim

? Autotrans.Auto.wdgcurrents
? Transformer.3phYY.wdgcurrents
currents
voltages
select Vsource.source
Select autotrans.auto 2

Dump Autotrans.* debug
Dump Transformer.* debug
/*
New fault.f1 Bus1=Xbus.1
Solve
Vis curr fault.f1
*/

/*********

New Fault.F1 phases=1 Bus1=Xbus1.1
New Fault.F2 phases=1 Bus1=Xbus2.1
New Fault.F3 phases=1 Bus1=Xbus3.1
Solve mode=direct
Show V LN Nodes
Show curr elem

*/

/***************
New fault.f1 phases=3 Bus1=Xbus1
New fault.f2 phases=3 Bus1=Xbus2
New fault.f3 phases=3 Bus1=Xbus3
Solve mode=direct
Show V LN Nodes
Show curr elem

*/

/***************
New fault.f1 phases=3 Bus1=ybus1
New fault.f2 phases=3 Bus1=ybus2
New fault.f3 phases=3 Bus1=ybus3
Solve mode=direct
Show V LN Nodes
Show curr elem

*/


/******************
Solve mode=fault
Show fault
*/

